project_renewable_restoration/project_39bus/results_sec/ref_39.json
{"conductor_ids":[1],"arcs_to":{},"bus_gens":{"18":[],"30":[1],"32":[3],"2":[],"11":[],"39":[10],"7":[],"9":[],"10":[],"8":[],"6":[],"4":[],"3":[],"5":[],"31":[2],"13":[],"14":[],"12":[],"1":[]},"switch":{},"bus_arcs":{"18":[[7,18,3]],"30":[[5,30,2]],"32":[[20,32,10]],"2":[[3,2,3],[5,2,30],[1,2,1]],"11":[[18,11,10],[13,11,6],[21,11,12]],"39":[[2,39,1],[17,39,9]],"7":[[15,7,8],[12,7,6]],"9":[[17,9,39],[16,9,8]],"10":[[20,10,32],[18,10,11],[19,10,13]],"8":[[16,8,9],[11,8,5],[15,8,7]],"6":[[14,6,31],[13,6,11],[12,6,7],[10,6,5]],"4":[[8,4,5],[9,4,14],[6,4,3]],"3":[[7,3,18],[6,3,4],[3,3,2]],"5":[[11,5,8],[10,5,6],[8,5,4]],"31":[[14,31,6]],"13":[[23,13,14],[19,13,10],[22,13,12]],"14":[[9,14,4],[23,14,13]],"12":[[21,12,11],[22,12,13]],"1":[[2,1,39],[1,1,2]]},"buspairs":{"(9, 39)":{"vm_to_min":0.94,"vm_fr_min":0.94,"angmin":-1.0472,"branch":17,"angmax":1.0472,"rate_a":9.0,"tap":1.0,"vm_to_max":1.06,"vm_fr_max":1.06},"(2, 3)":{"vm_to_min":0.94,"vm_fr_min":0.94,"angmin":-1.0472,"branch":3,"angmax":1.0472,"rate_a":5.0,"tap":1.0,"vm_to_max":1.06,"vm_fr_max":1.06},"(10, 32)":{"vm_to_min":0.94,"vm_fr_min":0.94,"angmin":-1.0472,"branch":20,"angmax":1.0472,"rate_a":9.0,"tap":1.07,"vm_to_max":1.06,"vm_fr_max":1.06},"(13, 14)":{"vm_to_min":0.94,"vm_fr_min":0.94,"angmin":-1.0472,"branch":23,"angmax":1.0472,"rate_a":6.0,"tap":1.0,"vm_to_max":1.06,"vm_fr_max":1.06},"(2, 30)":{"vm_to_min":0.94,"vm_fr_min":0.94,"angmin":-1.0472,"branch":5,"angmax":1.0472,"rate_a":9.0,"tap":1.025,"vm_to_max":1.06,"vm_fr_max":1.06},"(5, 6)":{"vm_to_min":0.94,"vm_fr_min":0.94,"angmin":-1.0472,"branch":10,"angmax":1.0472,"rate_a":12.0,"tap":1.0,"vm_to_max":1.06,"vm_fr_max":1.06},"(10, 11)":{"vm_to_min":0.94,"vm_fr_min":0.94,"angmin":-1.0472,"branch":18,"angmax":1.0472,"rate_a":6.0,"tap":1.0,"vm_to_max":1.06,"vm_fr_max":1.06},"(4, 14)":{"vm_to_min":0.94,"vm_fr_min":0.94,"angmin":-1.0472,"branch":9,"angmax":1.0472,"rate_a":5.0,"tap":1.0,"vm_to_max":1.06,"vm_fr_max":1.06},"(8, 9)":{"vm_to_min":0.94,"vm_fr_min":0.94,"angmin":-1.0472,"branch":16,"angmax":1.0472,"rate_a":9.0,"tap":1.0,"vm_to_max":1.06,"vm_fr_max":1.06},"(12, 13)":{"vm_to_min":0.94,"vm_fr_min":0.94,"angmin":-1.0472,"branch":22,"angmax":1.0472,"rate_a":5.0,"tap":1.006,"vm_to_max":1.06,"vm_fr_max":1.06},"(5, 8)":{"vm_to_min":0.94,"vm_fr_min":0.94,"angmin":-1.0472,"branch":11,"angmax":1.0472,"rate_a":9.0,"tap":1.0,"vm_to_max":1.06,"vm_fr_max":1.06},"(4, 5)":{"vm_to_min":0.94,"vm_fr_min":0.94,"angmin":-1.0472,"branch":8,"angmax":1.0472,"rate_a":6.0,"tap":1.0,"vm_to_max":1.06,"vm_fr_max":1.06},"(10, 13)":{"vm_to_min":0.94,"vm_fr_min":0.94,"angmin":-1.0472,"branch":19,"angmax":1.0472,"rate_a":6.0,"tap":1.0,"vm_to_max":1.06,"vm_fr_max":1.06},"(7, 8)":{"vm_to_min":0.94,"vm_fr_min":0.94,"angmin":-1.0472,"branch":15,"angmax":1.0472,"rate_a":9.0,"tap":1.0,"vm_to_max":1.06,"vm_fr_max":1.06},"(3, 18)":{"vm_to_min":0.94,"vm_fr_min":0.94,"angmin":-1.0472,"branch":7,"angmax":1.0472,"rate_a":5.0,"tap":1.0,"vm_to_max":1.06,"vm_fr_max":1.06},"(12, 11)":{"vm_to_min":0.94,"vm_fr_min":0.94,"angmin":-1.0472,"branch":21,"angmax":1.0472,"rate_a":5.0,"tap":1.006,"vm_to_max":1.06,"vm_fr_max":1.06},"(6, 7)":{"vm_to_min":0.94,"vm_fr_min":0.94,"angmin":-1.0472,"branch":12,"angmax":1.0472,"rate_a":9.0,"tap":1.0,"vm_to_max":1.06,"vm_fr_max":1.06},"(1, 39)":{"vm_to_min":0.94,"vm_fr_min":0.94,"angmin":-1.0472,"branch":2,"angmax":1.0472,"rate_a":10.0,"tap":1.0,"vm_to_max":1.06,"vm_fr_max":1.06},"(1, 2)":{"vm_to_min":0.94,"vm_fr_min":0.94,"angmin":-1.0472,"branch":1,"angmax":1.0472,"rate_a":6.0,"tap":1.0,"vm_to_max":1.06,"vm_fr_max":1.06},"(6, 31)":{"vm_to_min":0.94,"vm_fr_min":0.94,"angmin":-1.0472,"branch":14,"angmax":1.0472,"rate_a":18.0,"tap":1.07,"vm_to_max":1.06,"vm_fr_max":1.06},"(6, 11)":{"vm_to_min":0.94,"vm_fr_min":0.94,"angmin":-1.0472,"branch":13,"angmax":1.0472,"rate_a":4.8,"tap":1.0,"vm_to_max":1.06,"vm_fr_max":1.06},"(3, 4)":{"vm_to_min":0.94,"vm_fr_min":0.94,"angmin":-1.0472,"branch":6,"angmax":1.0472,"rate_a":5.0,"tap":1.0,"vm_to_max":1.06,"vm_fr_max":1.06}},"bus":{"18":{"zone":1,"bus_i":18,"bus_type":1,"vmax":1.06,"source_id":["bus",18],"area":2,"vmin":0.94,"index":18,"va":-0.20919809629718367,"vm":1.0315726,"base_kv":345.0},"30":{"zone":1,"bus_i":30,"bus_type":2,"vmax":1.06,"source_id":["bus",30],"area":2,"vmin":0.94,"index":30,"va":-0.12863904920461205,"vm":1.0499,"base_kv":345.0},"32":{"zone":1,"bus_i":32,"bus_type":2,"vmax":1.06,"source_id":["bus",32],"area":1,"vmin":0.94,"index":32,"va":-0.003288853063897563,"vm":0.9841,"base_kv":345.0},"2":{"zone":1,"bus_i":2,"bus_type":1,"vmax":1.06,"source_id":["bus",2],"area":2,"vmin":0.94,"index":2,"va":-0.17078512035543097,"vm":1.0484941,"base_kv":345.0},"11":{"zone":1,"bus_i":11,"bus_type":1,"vmax":1.06,"source_id":["bus",11],"area":1,"vmin":0.94,"index":11,"va":-0.1559794870747753,"vm":1.0133858,"base_kv":345.0},"39":{"zone":1,"bus_i":39,"bus_type":2,"vmax":1.06,"source_id":["bus",39],"area":1,"vmin":0.94,"index":39,"va":-0.2536880748202609,"vm":1.03,"base_kv":345.0},"7":{"zone":1,"bus_i":7,"bus_type":1,"vmax":1.06,"source_id":["bus",7],"area":1,"vmin":0.94,"index":7,"va":-0.2226276718529942,"vm":0.99839728,"base_kv":345.0},"9":{"zone":1,"bus_i":9,"bus_type":1,"vmax":1.06,"source_id":["bus",9],"area":1,"vmin":0.94,"index":9,"va":-0.24746049570304987,"vm":1.038332,"base_kv":345.0},"10":{"zone":1,"bus_i":10,"bus_type":1,"vmax":1.06,"source_id":["bus",10],"area":1,"vmin":0.94,"index":10,"va":-0.14260867151889167,"vm":1.0178431,"base_kv":345.0},"8":{"zone":1,"bus_i":8,"bus_type":1,"vmax":1.06,"source_id":["bus",8],"area":1,"vmin":0.94,"index":8,"va":-0.23275438633233067,"vm":0.99787232,"base_kv":345.0},"6":{"zone":1,"bus_i":6,"bus_type":1,"vmax":1.06,"source_id":["bus",6],"area":1,"vmin":0.94,"index":6,"va":-0.1816596281341014,"vm":1.0082256,"base_kv":345.0},"4":{"zone":1,"bus_i":4,"bus_type":1,"vmax":1.06,"source_id":["bus",4],"area":1,"vmin":0.94,"index":4,"va":-0.2203780820735137,"vm":1.00446,"base_kv":345.0},"3":{"zone":1,"bus_i":3,"bus_type":1,"vmax":1.06,"source_id":["bus",3],"area":2,"vmin":0.94,"index":3,"va":-0.21426332103915155,"vm":1.0307077,"base_kv":345.0},"5":{"zone":1,"bus_i":5,"bus_type":1,"vmax":1.06,"source_id":["bus",5],"area":1,"vmin":0.94,"index":5,"va":-0.19534316654936965,"vm":1.0060063,"base_kv":345.0},"31":{"zone":1,"bus_i":31,"bus_type":3,"vmax":1.06,"source_id":["bus",31],"area":1,"vmin":0.94,"index":31,"va":0.0,"vm":0.982,"base_kv":345.0},"13":{"zone":1,"bus_i":13,"bus_type":1,"vmax":1.06,"source_id":["bus",13],"area":1,"vmin":0.94,"index":13,"va":-0.15585663160339816,"vm":1.014923,"base_kv":345.0},"14":{"zone":1,"bus_i":14,"bus_type":1,"vmax":1.06,"source_id":["bus",14],"area":1,"vmin":0.94,"index":14,"va":-0.18701717807248577,"vm":1.012319,"base_kv":345.0},"12":{"zone":1,"bus_i":12,"bus_type":1,"vmax":1.06,"source_id":["bus",12],"area":1,"vmin":0.94,"index":12,"va":-0.15705910062616918,"vm":1.000815,"base_kv":345.0},"1":{"zone":1,"bus_i":1,"bus_type":1,"vmax":1.06,"source_id":["bus",1],"area":2,"vmin":0.94,"index":1,"va":-0.23625827443204947,"vm":1.0393836,"base_kv":345.0}},"dcline":{},"arcs_to_dc":{},"arcs_to_sw":{},"storage":{},"bus_loads":{"18":[10],"30":[],"32":[],"2":[],"11":[],"39":[],"7":[4],"9":[6],"10":[],"8":[5],"6":[],"4":[3],"3":[2],"5":[],"31":[20],"13":[],"14":[],"12":[7],"1":[1]},"branch":{"1":{"br_r":0.0035,"rate_a":6.0,"shift":0.0,"rate_b":6.0,"br_x":0.0411,"rate_c":6.0,"g_to":0.0,"g_fr":0.0,"source_id":["branch",1],"b_fr":0.34935,"f_bus":1,"br_status":1,"t_bus":2,"b_to":0.34935,"index":1,"angmin":-1.0472,"angmax":1.0472,"transformer":false,"tap":1.0},"2":{"br_r":0.001,"rate_a":10.0,"shift":0.0,"rate_b":10.0,"br_x":0.025,"rate_c":10.0,"g_to":0.0,"g_fr":0.0,"source_id":["branch",2],"b_fr":0.375,"f_bus":1,"br_status":1,"t_bus":39,"b_to":0.375,"index":2,"angmin":-1.0472,"angmax":1.0472,"transformer":false,"tap":1.0},"16":{"br_r":0.0023,"rate_a":9.0,"shift":0.0,"rate_b":9.0,"br_x":0.0363,"rate_c":9.0,"g_to":0.0,"g_fr":0.0,"source_id":["branch",16],"b_fr":0.1902,"f_bus":8,"br_status":1,"t_bus":9,"b_to":0.1902,"index":16,"angmin":-1.0472,"angmax":1.0472,"transformer":false,"tap":1.0},"11":{"br_r":0.0008,"rate_a":9.0,"shift":0.0,"rate_b":9.0,"br_x":0.0112,"rate_c":9.0,"g_to":0.0,"g_fr":0.0,"source_id":["branch",11],"b_fr":0.0738,"f_bus":5,"br_status":1,"t_bus":8,"b_to":0.0738,"index":11,"angmin":-1.0472,"angmax":1.0472,"transformer":false,"tap":1.0},"21":{"br_r":0.0016,"rate_a":5.0,"shift":0.0,"rate_b":5.0,"br_x":0.0435,"rate_c":5.0,"g_to":0.0,"g_fr":0.0,"source_id":["branch",21],"b_fr":0.0,"f_bus":12,"br_status":1,"t_bus":11,"b_to":0.0,"index":21,"angmin":-1.0472,"angmax":1.0472,"transformer":true,"tap":1.006},"7":{"br_r":0.0011,"rate_a":5.0,"shift":0.0,"rate_b":5.0,"br_x":0.0133,"rate_c":5.0,"g_to":0.0,"g_fr":0.0,"source_id":["branch",7],"b_fr":0.1069,"f_bus":3,"br_status":1,"t_bus":18,"b_to":0.1069,"index":7,"angmin":-1.0472,"angmax":1.0472,"transformer":false,"tap":1.0},"9":{"br_r":0.0008,"rate_a":5.0,"shift":0.0,"rate_b":5.0,"br_x":0.0129,"rate_c":5.0,"g_to":0.0,"g_fr":0.0,"source_id":["branch",9],"b_fr":0.0691,"f_bus":4,"br_status":1,"t_bus":14,"b_to":0.0691,"index":9,"angmin":-1.0472,"angmax":1.0472,"transformer":false,"tap":1.0},"10":{"br_r":0.0002,"rate_a":12.0,"shift":0.0,"rate_b":12.0,"br_x":0.0026,"rate_c":12.0,"g_to":0.0,"g_fr":0.0,"source_id":["branch",10],"b_fr":0.0217,"f_bus":5,"br_status":1,"t_bus":6,"b_to":0.0217,"index":10,"angmin":-1.0472,"angmax":1.0472,"transformer":false,"tap":1.0},"19":{"br_r":0.0004,"rate_a":6.0,"shift":0.0,"rate_b":6.0,"br_x":0.0043,"rate_c":6.0,"g_to":0.0,"g_fr":0.0,"source_id":["branch",19],"b_fr":0.03645,"f_bus":10,"br_status":1,"t_bus":13,"b_to":0.03645,"index":19,"angmin":-1.0472,"angmax":1.0472,"transformer":false,"tap":1.0},"17":{"br_r":0.001,"rate_a":9.0,"shift":0.0,"rate_b":9.0,"br_x":0.025,"rate_c":9.0,"g_to":0.0,"g_fr":0.0,"source_id":["branch",17],"b_fr":0.6,"f_bus":9,"br_status":1,"t_bus":39,"b_to":0.6,"index":17,"angmin":-1.0472,"angmax":1.0472,"transformer":false,"tap":1.0},"8":{"br_r":0.0008,"rate_a":6.0,"shift":0.0,"rate_b":6.0,"br_x":0.0128,"rate_c":6.0,"g_to":0.0,"g_fr":0.0,"source_id":["branch",8],"b_fr":0.0671,"f_bus":4,"br_status":1,"t_bus":5,"b_to":0.0671,"index":8,"angmin":-1.0472,"angmax":1.0472,"transformer":false,"tap":1.0},"22":{"br_r":0.0016,"rate_a":5.0,"shift":0.0,"rate_b":5.0,"br_x":0.0435,"rate_c":5.0,"g_to":0.0,"g_fr":0.0,"source_id":["branch",22],"b_fr":0.0,"f_bus":12,"br_status":1,"t_bus":13,"b_to":0.0,"index":22,"angmin":-1.0472,"angmax":1.0472,"transformer":true,"tap":1.006},"6":{"br_r":0.0013,"rate_a":5.0,"shift":0.0,"rate_b":5.0,"br_x":0.0213,"rate_c":5.0,"g_to":0.0,"g_fr":0.0,"source_id":["branch",6],"b_fr":0.1107,"f_bus":3,"br_status":1,"t_bus":4,"b_to":0.1107,"index":6,"angmin":-1.0472,"angmax":1.0472,"transformer":false,"tap":1.0},"3":{"br_r":0.0013,"rate_a":5.0,"shift":0.0,"rate_b":5.0,"br_x":0.0151,"rate_c":5.0,"g_to":0.0,"g_fr":0.0,"source_id":["branch",3],"b_fr":0.1286,"f_bus":2,"br_status":1,"t_bus":3,"b_to":0.1286,"index":3,"angmin":-1.0472,"angmax":1.0472,"transformer":false,"tap":1.0},"5":{"br_r":0.0,"rate_a":9.0,"shift":0.0,"rate_b":9.0,"br_x":0.0181,"rate_c":25.0,"g_to":0.0,"g_fr":0.0,"source_id":["branch",5],"b_fr":0.0,"f_bus":2,"br_status":1,"t_bus":30,"b_to":0.0,"index":5,"angmin":-1.0472,"angmax":1.0472,"transformer":true,"tap":1.025},"20":{"br_r":0.0,"rate_a":9.0,"shift":0.0,"rate_b":9.0,"br_x":0.02,"rate_c":25.0,"g_to":0.0,"g_fr":0.0,"source_id":["branch",20],"b_fr":0.0,"f_bus":10,"br_status":1,"t_bus":32,"b_to":0.0,"index":20,"angmin":-1.0472,"angmax":1.0472,"transformer":true,"tap":1.07},"23":{"br_r":0.0009,"rate_a":6.0,"shift":0.0,"rate_b":6.0,"br_x":0.0101,"rate_c":6.0,"g_to":0.0,"g_fr":0.0,"source_id":["branch",23],"b_fr":0.08615,"f_bus":13,"br_status":1,"t_bus":14,"b_to":0.08615,"index":23,"angmin":-1.0472,"angmax":1.0472,"transformer":false,"tap":1.0},"14":{"br_r":0.0,"rate_a":18.0,"shift":0.0,"rate_b":18.0,"br_x":0.025,"rate_c":18.0,"g_to":0.0,"g_fr":0.0,"source_id":["branch",14],"b_fr":0.0,"f_bus":6,"br_status":1,"t_bus":31,"b_to":0.0,"index":14,"angmin":-1.0472,"angmax":1.0472,"transformer":true,"tap":1.07},"13":{"br_r":0.0007,"rate_a":4.8,"shift":0.0,"rate_b":4.8,"br_x":0.0082,"rate_c":4.8,"g_to":0.0,"g_fr":0.0,"source_id":["branch",13],"b_fr":0.06945,"f_bus":6,"br_status":1,"t_bus":11,"b_to":0.06945,"index":13,"angmin":-1.0472,"angmax":1.0472,"transformer":false,"tap":1.0},"15":{"br_r":0.0004,"rate_a":9.0,"shift":0.0,"rate_b":9.0,"br_x":0.0046,"rate_c":9.0,"g_to":0.0,"g_fr":0.0,"source_id":["branch",15],"b_fr":0.039,"f_bus":7,"br_status":1,"t_bus":8,"b_to":0.039,"index":15,"angmin":-1.0472,"angmax":1.0472,"transformer":false,"tap":1.0},"12":{"br_r":0.0006,"rate_a":9.0,"shift":0.0,"rate_b":9.0,"br_x":0.0092,"rate_c":9.0,"g_to":0.0,"g_fr":0.0,"source_id":["branch",12],"b_fr":0.0565,"f_bus":6,"br_status":1,"t_bus":7,"b_to":0.0565,"index":12,"angmin":-1.0472,"angmax":1.0472,"transformer":false,"tap":1.0},"18":{"br_r":0.0004,"rate_a":6.0,"shift":0.0,"rate_b":6.0,"br_x":0.0043,"rate_c":6.0,"g_to":0.0,"g_fr":0.0,"source_id":["branch",18],"b_fr":0.03645,"f_bus":10,"br_status":1,"t_bus":11,"b_to":0.03645,"index":18,"angmin":-1.0472,"angmax":1.0472,"transformer":false,"tap":1.0}},"gen":{"10":{"ncost":3,"qc1max":0.0,"pg":10.0,"model":2,"shutdown":0.0,"startup":0.0,"qc2max":0.0,"ramp_agc":0.0,"qg":0.084674,"gen_bus":39,"pmax":10.0,"ramp_10":0.0,"vg":1.03,"mbase":100.0,"source_id":["gen",10],"pc2":0.0,"index":10,"cost":[100.0,30.0,0.2],"qmax":3.0,"gen_status":1,"qmin":-1.0,"qc1min":0.0,"qc2min":0.0,"pc1":0.0,"ramp_q":0.0,"ramp_30":0.0,"pmin":0.0,"apf":0.0},"2":{"ncost":3,"qc1max":0.0,"pg":6.77,"model":2,"shutdown":0.0,"startup":0.0,"qc2max":0.0,"ramp_agc":0.0,"qg":2.2157400000000003,"gen_bus":31,"pmax":6.46,"ramp_10":0.0,"vg":0.982,"mbase":100.0,"source_id":["gen",2],"pc2":0.0,"index":2,"cost":[100.0,30.0,0.2],"qmax":3.0,"gen_status":1,"qmin":-1.0,"qc1min":0.0,"qc2min":0.0,"pc1":0.0,"ramp_q":0.0,"ramp_30":0.0,"pmin":0.0,"apf":0.0},"3":{"ncost":3,"qc1max":0.0,"pg":6.5,"model":2,"shutdown":0.0,"startup":0.0,"qc2max":0.0,"ramp_agc":0.0,"qg":2.06965,"gen_bus":32,"pmax":7.25,"ramp_10":0.0,"vg":0.9841,"mbase":100.0,"source_id":["gen",3],"pc2":0.0,"index":3,"cost":[100.0,30.0,0.2],"qmax":3.0,"gen_status":1,"qmin":1.5,"qc1min":0.0,"qc2min":0.0,"pc1":0.0,"ramp_q":0.0,"ramp_30":0.0,"pmin":0.0,"apf":0.0},"1":{"ncost":3,"qc1max":0.0,"pg":2.5,"model":2,"shutdown":0.0,"startup":0.0,"qc2max":0.0,"ramp_agc":0.0,"qg":1.61762,"gen_bus":30,"pmax":10.4,"ramp_10":0.0,"vg":1.0499,"mbase":100.0,"source_id":["gen",1],"pc2":0.0,"index":1,"cost":[100.0,30.0,0.2],"qmax":4.0,"gen_status":1,"qmin":1.4,"qc1min":0.0,"qc2min":0.0,"pc1":0.0,"ramp_q":0.0,"ramp_30":0.0,"pmin":0.0,"apf":0.0}},"source_type":"matpower","name":"case39","shunt":{},"load":{"7":{"source_id":["bus",12],"load_bus":12,"status":1,"qd":0.88,"pd":0.08529999999999999,"index":7},"4":{"source_id":["bus",7],"load_bus":7,"status":1,"qd":0.84,"pd":2.338,"index":4},"20":{"source_id":["bus",31],"load_bus":31,"status":1,"qd":0.046,"pd":0.092,"index":20},"10":{"source_id":["bus",18],"load_bus":18,"status":1,"qd":0.3,"pd":1.58,"index":10},"2":{"source_id":["bus",3],"load_bus":3,"status":1,"qd":0.024,"pd":3.22,"index":2},"3":{"source_id":["bus",4],"load_bus":4,"status":1,"qd":1.84,"pd":5.0,"index":3},"5":{"source_id":["bus",8],"load_bus":8,"status":1,"qd":1.766,"pd":5.22,"index":5},"6":{"source_id":["bus",9],"load_bus":9,"status":1,"qd":-0.6659999999999999,"pd":0.065,"index":6},"1":{"source_id":["bus",1],"load_bus":1,"status":1,"qd":0.442,"pd":0.976,"index":1}},"arcs_from_sw":{},"arcs":[[7,18,3],[5,30,2],[20,32,10],[3,2,3],[5,2,30],[1,2,1],[18,11,10],[13,11,6],[21,11,12],[2,39,1],[17,39,9],[15,7,8],[12,7,6],[17,9,39],[16,9,8],[20,10,32],[18,10,11],[19,10,13],[16,8,9],[11,8,5],[15,8,7],[14,6,31],[13,6,11],[12,6,7],[10,6,5],[8,4,5],[9,4,14],[6,4,3],[7,3,18],[6,3,4],[3,3,2],[11,5,8],[10,5,6],[8,5,4],[14,31,6],[23,13,14],[19,13,10],[22,13,12],[9,14,4],[23,14,13],[21,12,11],[22,12,13],[2,1,39],[1,1,2]],"arcs_from":{},"bus_shunts":{"18":[],"30":[],"32":[],"2":[],"11":[],"39":[],"7":[],"9":[],"10":[],"8":[],"6":[],"4":[],"3":[],"5":[],"31":[],"13":[],"14":[],"12":[],"1":[]},"bus_arcs_dc":{},"source_version":"2","ref_buses":39,"bus_arcs_sw":{},"arcs_from_dc":{},"arcs_sw":{},"bus_storage":{},"baseMVA":100,"arcs_dc":{}}